*HEADING
cubit(testSculptMesh.inp): 07/19/2023: 11:08:34
version: 2022.4
**
********************************** P A R T S **********************************
*PART, NAME=Part-Default
**
********************************** N O D E S **********************************
*NODE, NSET=ALLNODES
       1,   -4.775434e+00,   -4.775434e+00,   -4.775434e+00
       2,   -4.837823e+00,   -4.346477e+00,   -4.837823e+00
       3,   -5.007221e+00,   -4.318986e+00,   -4.318986e+00
       4,   -4.837823e+00,   -4.837823e+00,   -4.346477e+00
       5,   -4.346477e+00,   -4.837823e+00,   -4.837823e+00
       6,   -4.318986e+00,   -4.318986e+00,   -5.007221e+00
       7,   -4.831108e+00,   -3.778970e+00,   -4.831108e+00
       8,   -4.989594e+00,   -3.777751e+00,   -4.308846e+00
       9,   -4.989594e+00,   -4.308846e+00,   -3.777751e+00
      10,   -4.831108e+00,   -4.831108e+00,   -3.778970e+00
      11,   -4.318986e+00,   -5.007221e+00,   -4.318986e+00
      12,   -4.308846e+00,   -4.989594e+00,   -3.777751e+00
      13,   -3.777751e+00,   -4.989594e+00,   -4.308846e+00
      14,   -3.778970e+00,   -4.831108e+00,   -4.831108e+00
      15,   -3.772994e+00,   -4.966716e+00,   -3.772994e+00
      16,   -3.254761e+00,   -4.989234e+00,   -4.308712e+00
      17,   -3.253921e+00,   -4.831144e+00,   -4.831144e+00
      18,   -3.777751e+00,   -4.308846e+00,   -4.989594e+00
      19,   -3.254761e+00,   -4.308712e+00,   -4.989234e+00
      20,   -3.772994e+00,   -3.772994e+00,   -4.966716e+00
** ... 11576 like lines cut
**
********************************** E L E M E N T S ****************************
*ELEMENT, TYPE=C3D8R, ELSET=EB1
       1,    2542,    2546,    2547,    2543,    2545,    2552,     642,    2544
       2,    2546,    2555,    2559,    2547,    2552,    2554,     643,     642
       3,    2543,    2547,    2562,    2548,    2544,     642,     644,    2549
       4,    2545,    2552,     642,    2544,    2551,    2553,     645,    2550
       5,    2552,    2554,     643,     642,    2553,    2556,     646,     645
       6,    2544,     642,     644,    2549,    2550,     645,     647,    2572
       7,    2551,    2553,     645,    2550,    2579,    2581,     648,    2576
       8,    2553,    2556,     646,     645,    2581,    2583,     649,     648
       9,    2550,     645,     647,    2572,    2576,     648,     650,    2575
      10,    2579,    2581,     648,    2576,    2580,    2582,     651,    2578
      11,    2581,    2583,     649,     648,    2582,    2584,     652,     651
      12,    2576,     648,     650,    2575,    2578,     651,     653,    2577
      13,    2580,    2582,     651,    2578,    2629,    2631,     654,    2627
      14,    2582,    2584,     652,     651,    2631,    2633,     655,     654
      15,    2578,     651,     653,    2577,    2627,     654,     656,    2624
      16,    2629,    2631,     654,    2627,    2630,    2632,     657,    2628
      17,    2631,    2633,     655,     654,    2632,    2634,     658,     657
      18,    2627,     654,     656,    2624,    2628,     657,     659,    2626
      19,    2630,    2632,     657,    2628,    2700,    2702,     660,    2698
      20,    2632,    2634,     658,     657,    2702,    2704,     661,     660
** ... 10316 like lines cut
**
********************************** P R O P E R T I E S ************************
*SOLID SECTION, ELSET=EB1, MATERIAL=Default-Steel
**
*END PART
**
**
**
********************************** E N D   P A R T S **********************************
**
**
********************************** A S S E M B L Y ************************************
**
*ASSEMBLY, NAME=ASSEMBLY1
**
*INSTANCE, NAME=Part-Default_1, PART=Part-Default
*END INSTANCE
**
*END ASSEMBLY
**
**
**
*MATERIAL, NAME = Default-Steel
*ELASTIC, TYPE=ISOTROPIC
2.068000e+05, 2.900000e-01
*DENSITY
7.000000e-06
*CONDUCTIVITY,TYPE=ISO
4.500000e-02
*SPECIFIC HEAT
5.000000e+02
**
**
************************************** H I S T O R Y *************************************
**
*PREPRINT
**
**************************************** S T E P 1 ***************************************
*STEP,INC=100,NAME=Default Set
**
*STATIC
1, 1, 1e-05, 1
**
**
**
**
*END STEP
