*HEADING
Created using the MATLAB function export_INP.m by Kevin Mattheus Moerman
**
********************************** P A R T S **********************************
*PART, NAME=Part-Default
**
********************************** N O D E S **********************************
*NODE, NSET=ALLNODES 
       1, 2.707214e+01, -3.760281e+00, -7.984454e+01
       2, 3.367281e+01, -5.421398e-01, -7.996816e+01
       3, 2.825290e+01, -1.020858e+00, -7.996084e+01
       4, 2.884400e+01,  2.017494e+00, -8.009162e+01
       5, 2.883656e+01,  5.073983e+00, -8.022469e+01
       6, 2.833757e+01,  8.040597e+00, -8.035507e+01
       7, 2.747016e+01,  1.094442e+01, -8.048363e+01
       8, 2.630591e+01,  1.365677e+01, -8.060461e+01
       9, 2.473742e+01,  1.638232e+01, -8.072716e+01
      10, 2.299960e+01,  1.878458e+01, -8.083606e+01
      11, 2.101108e+01,  2.099842e+01, -8.093739e+01
      12, 1.876858e+01,  2.296695e+01, -8.102868e+01
      13, 1.618185e+01,  2.471491e+01, -8.111122e+01
      14, 1.365279e+01,  2.615560e+01, -8.118024e+01
      15, 1.103887e+01,  2.757239e+01, -8.124843e+01
      16, 8.254483e+00,  2.904152e+01, -8.131933e+01
      17, 5.416911e+00,  3.040395e+01, -8.138571e+01
      18, 2.432522e+00,  3.147855e+01, -8.143993e+01
      19,-7.478170e-01,  3.210582e+01, -8.147517e+01
      20,-4.134123e+00,  3.224063e+01, -8.148949e+01
** ... 33244 like lines cut
**
********************************** E L E M E N T S ****************************
*ELEMENT, TYPE=C3D8R, ELSET=EB1
       1,     925,     927,    1094,    1093,       1,       3,     170,     169
       2,    1093,    1094,     926,    1010,     169,     170,       2,      86
       3,     927,     928,    1095,    1094,       3,       4,     171,     170
       4,    1094,    1095,    1092,     926,     170,     171,     168,       2
       5,     928,     929,    1096,    1095,       4,       5,     172,     171
       6,    1095,    1096,    1091,    1092,     171,     172,     167,     168
       7,     929,     930,    1097,    1096,       5,       6,     173,     172
       8,    1096,    1097,    1090,    1091,     172,     173,     166,     167
       9,     930,     931,    1098,    1097,       6,       7,     174,     173
      10,    1097,    1098,    1089,    1090,     173,     174,     165,     166
      11,     931,     932,    1099,    1098,       7,       8,     175,     174
      12,    1098,    1099,    1088,    1089,     174,     175,     164,     165
      13,     932,     933,    1100,    1099,       8,       9,     176,     175
      14,    1099,    1100,    1087,    1088,     175,     176,     163,     164
      15,     933,     934,    1101,    1100,       9,      10,     177,     176
      16,    1100,    1101,    1086,    1087,     176,     177,     162,     163
      17,     934,     935,    1102,    1101,      10,      11,     178,     177
      18,    1101,    1102,    1085,    1086,     177,     178,     161,     162
      19,     935,     936,    1103,    1102,      11,      12,     179,     178
      20,    1102,    1103,    1084,    1085,     178,     179,     160,     161
** ... 29380 like lines cut
**
********************************** P R O P E R T I E S ************************
*SHELL SECTION, ELSET=EB1, SECTION INTEGRATION=SIMPSON, MATERIAL=Default-Steel
1.000000e+000
**
*END PART
**
**
**
********************************** E N D   P A R T S **********************************
**
**
********************************** A S S E M B L Y ************************************
**
*ASSEMBLY, NAME=ASSEMBLY1
**
*INSTANCE, NAME=Part-Default_1, PART=Part-Default
*END INSTANCE
**
*END ASSEMBLY
**
**
**
*MATERIAL, NAME = Default-Steel
*ELASTIC, TYPE=ISOTROPIC
2.068000e+005, 2.900000e-001
*DENSITY
7.000000e-006
*CONDUCTIVITY,TYPE=ISO
4.500000e-002
*SPECIFIC HEAT
5.000000e+002
**
**
************************************** H I S T O R Y *************************************
**
*PREPRINT
**
**************************************** S T E P 1 ***************************************
*STEP,INC=100,NAME=Default Set
**
*STATIC
1, 1, 1e-005, 1
**
**
**
**
*END STEP
